$ NASTRAN input file created by the Patran 2012.2 64-Bit input file
$ translator on January   12, 2016 at 17:03:36.
$ Direct Text Input for Nastran System Cell Section
$ Direct Text Input for File Management Section
$ Direct Text Input for Executive Control
$ Normal Modes Analysis, Database
SOL 103
CEND
$ Direct Text Input for Global Case Control Data
TITLE = MSC.Nastran job created on 05-Nov-14 at 15:31:17
ECHO = NONE
RESVEC = NO
SUBCASE 1
   SUBTITLE=Default
   METHOD = 1
   VECTOR(SORT1,REAL)=ALL
   SPCFORCES(SORT1,REAL)=ALL
$ Direct Text Input for this Subcase
BEGIN BULK
$ Direct Text Input for Bulk Data
PARAM    POST    0
PARAM   PRTMAXIM YES
EIGRL    1      .1               5       0                       MASS
$ Elements and Element Properties for region : Ortho-heng
PSHELL   1       1      2.4      1               1
$ Pset: "Ortho-heng" will be imported as: "pshell.1"
CQUAD4   1       1       1       2       43      42      0
CQUAD4   2       1       2       3       44      43      0
CQUAD4   3       1       3       4       45      44      0
CQUAD4   4       1       4       5       46      45      0
CQUAD4   5       1       5       6       47      46      0
CQUAD4   6       1       6       7       48      47      0
CQUAD4   7       1       7       8       49      48      0
CQUAD4   8       1       8       9       50      49      0
CQUAD4   9       1       9       10      51      50      0
CQUAD4   10      1       10      11      52      51      0
CQUAD4   11      1       11      12      53      52      0
CQUAD4   15      1       15      16      57      56      0
CQUAD4   16      1       16      17      58      57      0
CQUAD4   17      1       17      18      59      58      0
CQUAD4   18      1       18      19      60      59      0
CQUAD4   19      1       19      20      61      60      0
CQUAD4   20      1       20      21      62      61      0
CQUAD4   21      1       21      22      63      62      0
CQUAD4   22      1       22      23      64      63      0
CQUAD4   23      1       23      24      65      64      0
$ ... 1084 like lines cut
$ Elements and Element Properties for region : Ortho-heng-crack
PSHELL   2       2      2.4      2               2
$ Pset: "Ortho-heng-crack" will be imported as: "pshell.2"
CQUAD4   12      2       12      13      54      53      0
CQUAD4   13      2       13      14      55      54      0
CQUAD4   14      2       14      15      56      55      0
CQUAD4   52      2       53      54      95      94      0
CQUAD4   53      2       54      55      96      95      0
CQUAD4   54      2       55      56      97      96      0
CQUAD4   92      2       94      95      136     135     0
CQUAD4   93      2       95      96      137     136     0
CQUAD4   94      2       96      97      138     137     0
CQUAD4   132     2       135     136     177     176     0
CQUAD4   133     2       136     137     178     177     0
CQUAD4   134     2       137     138     179     178     0
CQUAD4   135     2       138     139     180     179     0
CQUAD4   172     2       176     177     218     217     0
CQUAD4   173     2       177     178     219     218     0
CQUAD4   174     2       178     179     220     219     0
CQUAD4   175     2       179     180     221     220     0
CQUAD4   212     2       217     218     259     258     0
CQUAD4   213     2       218     219     260     259     0
CQUAD4   214     2       219     220     261     260     0
$ ... 76 like lines cut
$ Referenced Material Records
$ Material Record : MAT-Ortho-heng
$ Description of Material : Date: 05-Nov-14           Time: 15:21:01
MAT8     1      3.555+7 1.065+8         5.21+6  5.21+6  5.21+6  1.6-6
$ Material Record : MAT-Ortho-heng-crack
$ Description of Material : Date: 05-Nov-14           Time: 15:21:01
MAT8     2      2.790+7 8.4+7           5.21+6  5.21+6  5.21+6  1.6-6
$ Nodes of the Entire Model
GRID     1               0.      0.      0.
GRID     2              10.      0.      0.
GRID     3              20.      0.      0.
GRID*    4                              30.0000019073486 0.
*        0.
GRID*    5                              39.9999961853027 0.
*        0.
GRID*    6                              49.9999961853027 0.
*        0.
GRID     7              60.      0.      0.
GRID     8              70.      0.      0.
GRID     9              80.      0.      0.
GRID     10             90.      0.      0.
GRID     11             100.     0.      0.
GRID     12             110.     0.      0.
GRID     13             120.     0.      0.
GRID*    14                             129.999984741211 0.
*        0.
GRID     15             140.     0.      0.
GRID     16             150.     0.      0.
GRID     17             160.     0.      0.
GRID     18             170.     0.      0.
GRID     19             180.     0.      0.
GRID     20             190.     0.      0.
GRID     21             200.     0.      0.
GRID*    22                             209.999984741211 0.
*        0.
GRID     23             220.     0.      0.
GRID     24             230.     0.      0.
GRID*    25                             240.000015258789 0.
*        0.
GRID     26             250.     0.      0.
GRID*    27                             259.999969482422 0.
*        0.
GRID*    28                             269.999969482422 0.
*        0.
GRID*    29                             279.999969482422 0.
*        0.
GRID*    30                             289.999969482422 0.
*        0.
GRID*    31                             299.999938964844 0.
*        0.
GRID*    32                             309.999938964844 0.
*        0.
GRID*    33                             319.999938964844 0.
*        0.
GRID*    34                             329.999908447266 0.
*        0.
GRID*    35                             339.999908447266 0.
*        0.
GRID*    36                             349.999908447266 0.
*        0.
GRID     37             360.     0.      0.
GRID     38             370.     0.      0.
GRID     39             380.     0.      0.
GRID     40             390.     0.      0.
GRID     41             400.     0.      0.
GRID*    42                              0.             10.0000009536743
*        0.
GRID*    43                             10.             10.0000009536743
*        0.
GRID*    44                             20.             10.0000009536743
*        0.
GRID*    45                             30.000001907348610.0000009536743
*        0.
GRID*    46                             39.999996185302710.0000009536743
*        0.
GRID*    47                             49.999996185302710.0000009536743
*        0.
GRID*    48                             60.             10.0000009536743
*        0.
GRID*    49                             70.             10.0000009536743
*        0.
GRID*    50                             80.             10.0000009536743
*        0.
GRID*    51                             90.             10.0000009536743
*        0.
GRID*    52                             100.            10.0000009536743
*        0.
GRID*    53                             110.            10.0000009536743
*        0.
GRID*    54                             120.            10.0000009536743
*        0.
GRID*    55                             129.99998474121110.0000009536743
*        0.
GRID*    56                             140.            10.0000009536743
*        0.
GRID*    57                             150.            10.0000009536743
*        0.
GRID*    58                             160.            10.0000009536743
*        0.
GRID*    59                             170.            10.0000009536743
*        0.
GRID*    60                             180.            10.0000009536743
*        0.
GRID*    61                             190.            10.0000009536743
*        0.
$ ... 1272 like lines cut
GRID     698             0.     170.     0.
GRID     699            10.     170.     0.
GRID     700            20.     170.     0.
GRID*    701                            30.0000019073486170.
*        0.
GRID*    702                            39.9999961853027170.
*        0.
GRID*    703                            49.9999961853027170.
*        0.
GRID     704            60.     170.     0.
GRID     705            70.     170.     0.
GRID     706            80.     170.     0.
GRID     707            90.     170.     0.
GRID     708            100.    170.     0.
GRID     709            110.    170.     0.
GRID     710            120.    170.     0.
GRID*    711                            129.999984741211170.
*        0.
GRID     712            140.    170.     0.
GRID     713            150.    170.     0.
GRID     714            160.    170.     0.
GRID     715            170.    170.     0.
GRID     716            180.    170.     0.
GRID     717            190.    170.     0.
GRID     718            200.    170.     0.
GRID*    719                            209.999984741211170.
*        0.
GRID     720            220.    170.     0.
GRID     721            230.    170.     0.
GRID*    722                            240.000015258789170.
*        0.
GRID     723            250.    170.     0.
GRID*    724                            259.999969482422170.
*        0.
GRID*    725                            269.999969482422170.
*        0.
GRID*    726                            279.999969482422170.
*        0.
GRID*    727                            289.999969482422170.
*        0.
GRID*    728                            299.999938964844170.
*        0.
GRID*    729                            309.999938964844170.
*        0.
GRID*    730                            319.999938964844170.
*        0.
GRID*    731                            329.999908447266170.
*        0.
GRID*    732                            339.999908447266170.
*        0.
GRID*    733                            349.999908447266170.
*        0.
GRID     734            360.    170.     0.
GRID     735            370.    170.     0.
GRID     736            380.    170.     0.
GRID     737            390.    170.     0.
GRID     738            400.    170.     0.
GRID     739             0.     180.     0.
GRID     740            10.     180.     0.
GRID     741            20.     180.     0.
GRID*    742                            30.0000019073486180.
*        0.
GRID*    743                            39.9999961853027180.
*        0.
GRID*    744                            49.9999961853027180.
*        0.
GRID     745            60.     180.     0.
GRID     746            70.     180.     0.
GRID     747            80.     180.     0.
GRID     748            90.     180.     0.
GRID     749            100.    180.     0.
GRID     750            110.    180.     0.
GRID     751            120.    180.     0.
GRID*    752                            129.999984741211180.
*        0.
GRID     753            140.    180.     0.
GRID     754            150.    180.     0.
GRID     755            160.    180.     0.
GRID     756            170.    180.     0.
GRID     757            180.    180.     0.
GRID     758            190.    180.     0.
GRID     759            200.    180.     0.
GRID*    760                            209.999984741211180.
*        0.
GRID     761            220.    180.     0.
GRID     762            230.    180.     0.
GRID*    763                            240.000015258789180.
*        0.
GRID     764            250.    180.     0.
GRID*    765                            259.999969482422180.
*        0.
GRID*    766                            269.999969482422180.
*        0.
GRID*    767                            279.999969482422180.
*        0.
GRID*    768                            289.999969482422180.
*        0.
GRID*    769                            299.999938964844180.
*        0.
GRID*    770                            309.999938964844180.
*        0.
GRID*    771                            319.999938964844180.
*        0.
GRID*    772                            329.999908447266180.
*        0.
GRID*    773                            339.999908447266180.
*        0.
GRID*    774                            349.999908447266180.
*        0.
GRID     775            360.    180.     0.
GRID     776            370.    180.     0.
GRID     777            380.    180.     0.
GRID     778            390.    180.     0.
GRID     779            400.    180.     0.
GRID*    780                             0.             190.000015258789
*        0.
GRID*    781                            10.             190.000015258789
*        0.
GRID*    782                            20.             190.000015258789
*        0.
GRID*    783                            30.0000019073486190.000015258789
*        0.
GRID*    784                            39.9999961853027190.000015258789
*        0.
GRID*    785                            49.9999961853027190.000015258789
*        0.
GRID*    786                            60.             190.000015258789
*        0.
GRID*    787                            70.             190.000015258789
*        0.
GRID*    788                            80.             190.000015258789
*        0.
GRID*    789                            90.             190.000015258789
*        0.
GRID*    790                            100.            190.000015258789
*        0.
GRID*    791                            110.            190.000015258789
*        0.
GRID*    792                            120.            190.000015258789
*        0.
GRID*    793                            129.999984741211190.000015258789
*        0.
GRID*    794                            140.            190.000015258789
*        0.
GRID*    795                            150.            190.000015258789
*        0.
GRID*    796                            160.            190.000015258789
*        0.
GRID*    797                            170.            190.000015258789
*        0.
GRID*    798                            180.            190.000015258789
*        0.
GRID*    799                            190.            190.000015258789
*        0.
$ ... 862 like lines cut
GRID     1231            0.     300.     0.
GRID     1232           10.     300.     0.
GRID     1233           20.     300.     0.
GRID*    1234                           30.0000019073486300.
*        0.
GRID*    1235                           39.9999961853027300.
*        0.
GRID*    1236                           49.9999961853027300.
*        0.
GRID     1237           60.     300.     0.
GRID     1238           70.     300.     0.
GRID     1239           80.     300.     0.
GRID     1240           90.     300.     0.
GRID     1241           100.    300.     0.
GRID     1242           110.    300.     0.
GRID     1243           120.    300.     0.
GRID*    1244                           129.999984741211300.
*        0.
GRID     1245           140.    300.     0.
GRID     1246           150.    300.     0.
GRID     1247           160.    300.     0.
GRID     1248           170.    300.     0.
GRID     1249           180.    300.     0.
GRID     1250           190.    300.     0.
GRID     1251           200.    300.     0.
GRID*    1252                           209.999984741211300.
*        0.
GRID     1253           220.    300.     0.
GRID     1254           230.    300.     0.
GRID*    1255                           240.000015258789300.
*        0.
GRID     1256           250.    300.     0.
GRID*    1257                           259.999969482422300.
*        0.
GRID*    1258                           269.999969482422300.
*        0.
GRID*    1259                           279.999969482422300.
*        0.
GRID*    1260                           289.999969482422300.
*        0.
GRID*    1261                           299.999938964844300.
*        0.
GRID*    1262                           309.999938964844300.
*        0.
GRID*    1263                           319.999938964844300.
*        0.
GRID*    1264                           329.999908447266300.
*        0.
GRID*    1265                           339.999908447266300.
*        0.
GRID*    1266                           349.999908447266300.
*        0.
GRID     1267           360.    300.     0.
GRID     1268           370.    300.     0.
GRID     1269           380.    300.     0.
GRID     1270           390.    300.     0.
GRID     1271           400.    300.     0.
$ Loads for Load Case : Default
$ Referenced Coordinate Frames
ENDDATA 717e1abb
